A71EV2A-x0469_0A
     RDKit          3D

 15 16  0  0  0  0  0  0  0  0999 V2000
   10.8740   22.0540   26.3460 N   0  0  0  0  0  0  0  0  0  0  0  0
   13.1250   21.6070   25.3360 C   0  0  0  0  0  0  0  0  0  0  0  0
   12.0070   22.6100   25.5750 C   0  0  0  0  0  0  0  0  0  0  0  0
    8.0010   18.2230   29.4810 C   0  0  0  0  0  0  0  0  0  0  0  0
   11.5600   23.2330   24.2650 C   0  0  0  0  0  0  0  0  0  0  0  0
    9.8090   23.0210   26.6570 C   0  0  0  0  0  0  0  0  0  0  0  0
    8.5700   22.3160   27.1850 C   0  0  0  0  0  0  0  0  0  0  0  0
   10.2930   21.5750   28.7180 C   0  0  0  0  0  0  0  0  0  0  0  0
   11.2460   21.3110   27.5610 C   0  0  0  0  0  0  0  0  0  0  0  0
    8.1550   20.2890   28.5480 C   0  0  0  0  0  0  0  0  0  0  0  0
    6.2740   19.0700   28.1610 C   0  0  0  0  0  0  0  0  0  0  0  0
    6.7630   18.0250   28.9110 C   0  0  0  0  0  0  0  0  0  0  0  0
    8.8980   21.4130   28.2940 N   0  0  0  0  0  0  0  0  0  0  0  0
    6.9410   20.2180   27.9650 N   0  0  0  0  0  0  0  0  0  0  0  0
    8.7250   19.3430   29.3180 N   0  0  0  0  0  0  0  0  0  0  0  0
  3  1  1  0
  3  2  1  0
  5  3  1  0
  6  1  1  0
  7  6  1  0
  9  8  1  0
  9  1  1  0
 12 11  1  0
 12  4  2  0
 13 10  1  0
 13  8  1  0
 13  7  1  0
 14 11  2  0
 14 10  1  0
 15 10  2  0
 15  4  1  0
M  END
>  <Unnamed: 0>  (1) 
1

>  <site_name>  (1) 
1

>  <pdb_entry>  (1) 
nan

>  <C110_distance>  (1) 
12.530019

>  <H21_distance>  (1) 
8.06338

>  <D39_distance>  (1) 
11.080779

>  <Y89_distance>  (1) 
1.98273

>  <Y90_distance>  (1) 
3.229777

>  <P2prime_distance>  (1) 
4.10816

>  <P1prime_distance>  (1) 
8.967686

>  <P1_distance>  (1) 
7.924575

>  <P2_distance>  (1) 
7.114441

>  <RMSD_A71EV2A-x0152_0A>  (1) 
0.105017

>  <RMSD_A71EV2A-x0395_1A>  (1) 
0.288366

>  <Y89.OH-S125.O_distance>  (1) 
2.659422

$$$$
A71EV2A-x0525_0A
     RDKit          3D

 11 11  0  0  0  0  0  0  0  0999 V2000
   10.1860   21.4670   25.7030 N   0  0  0  0  0  0  0  0  0  0  0  0
   14.0370   22.7430   24.9070 C   0  0  0  0  0  0  0  0  0  0  0  0
   13.0600   22.6830   23.9650 O   0  0  0  0  0  0  0  0  0  0  0  0
   11.8480   22.6580   24.5800 C   0  0  0  0  0  0  0  0  0  0  0  0
   11.0040   23.8290   24.6300 C   0  0  0  0  0  0  0  0  0  0  0  0
    9.7740   23.7520   25.1920 C   0  0  0  0  0  0  0  0  0  0  0  0
    9.3000   22.5020   25.7460 C   0  0  0  0  0  0  0  0  0  0  0  0
   11.4170   21.5320   25.1340 C   0  0  0  0  0  0  0  0  0  0  0  0
   14.9040   23.5670   24.3470 F   0  0  0  0  0  0  0  0  0  0  0  0
   14.5400   21.4890   25.0790 F   0  0  0  0  0  0  0  0  0  0  0  0
    8.1540   22.2850   26.1760 O   0  0  0  0  0  0  0  0  0  0  0  0
  3  2  1  0
  4  3  1  0
  5  4  1  0
  6  5  2  0
  7  1  1  0
  7  6  1  0
  8  1  1  0
  8  4  2  0
  2  9  1  0
 10  2  1  0
 11  7  2  0
M  END
>  <Unnamed: 0>  (2) 
5

>  <site_name>  (2) 
1

>  <pdb_entry>  (2) 
nan

>  <C110_distance>  (2) 
12.321322

>  <H21_distance>  (2) 
7.210829

>  <D39_distance>  (2) 
10.561682

>  <Y89_distance>  (2) 
2.14247

>  <Y90_distance>  (2) 
3.090569

>  <P2prime_distance>  (2) 
6.437867

>  <P1prime_distance>  (2) 
8.548827

>  <P1_distance>  (2) 
7.813826

>  <P2_distance>  (2) 
6.568603

>  <RMSD_A71EV2A-x0152_0A>  (2) 
0.10909

>  <RMSD_A71EV2A-x0395_1A>  (2) 
0.258639

>  <Y89.OH-S125.O_distance>  (2) 
2.658312

$$$$
A71EV2A-x0540_0A
     RDKit          3D

 18 19  0  0  0  0  0  0  0  0999 V2000
    9.4880   22.0010   28.2160 N   0  0  0  0  0  0  0  0  0  0  0  0
    6.5070   17.9570   28.7540 C   0  0  0  0  0  0  0  0  0  0  0  0
    5.8740   19.0200   28.1710 C   0  0  0  0  0  0  0  0  0  0  0  0
   13.7860   23.1430   23.6020 C   0  0  0  0  0  0  0  0  0  0  0  0
   12.5380   21.6670   25.1120 C   0  0  0  0  0  0  0  0  0  0  0  0
   11.4260   21.4180   25.8940 C   0  0  0  0  0  0  0  0  0  0  0  0
    8.2650   19.3380   29.5240 C   0  0  0  0  0  0  0  0  0  0  0  0
    7.6890   18.0810   29.4330 C   0  0  0  0  0  0  0  0  0  0  0  0
    6.4630   20.2710   28.2680 C   0  0  0  0  0  0  0  0  0  0  0  0
    7.6620   20.4500   28.9460 C   0  0  0  0  0  0  0  0  0  0  0  0
    8.2960   21.8180   29.0580 C   0  0  0  0  0  0  0  0  0  0  0  0
    9.1500   22.0230   26.7880 C   0  0  0  0  0  0  0  0  0  0  0  0
   10.3490   22.2970   25.9160 C   0  0  0  0  0  0  0  0  0  0  0  0
   10.4110   23.4380   25.1280 C   0  0  0  0  0  0  0  0  0  0  0  0
   11.5160   23.7030   24.3430 C   0  0  0  0  0  0  0  0  0  0  0  0
   12.5920   22.8200   24.3340 C   0  0  0  0  0  0  0  0  0  0  0  0
    5.9390   16.7220   28.6530 F   0  0  0  0  0  0  0  0  0  0  0  0
   14.7510   23.3990   23.0530 N   0  0  0  0  0  0  0  0  0  0  0  0
  3  2  2  0
  6  5  2  0
  8  7  2  0
  8  2  1  0
  9  3  1  0
 10  9  2  0
 10  7  1  0
 11 10  1  0
 11  1  1  0
 12  1  1  0
 13 12  1  0
 13  6  1  0
 14 13  2  0
 15 14  1  0
 16  5  1  0
 16 15  2  0
 16  4  1  0
 17  2  1  0
 18  4  3  0
M  END
>  <Unnamed: 0>  (3) 
7

>  <site_name>  (3) 
1

>  <pdb_entry>  (3) 
nan

>  <C110_distance>  (3) 
12.58994

>  <H21_distance>  (3) 
7.856407

>  <D39_distance>  (3) 
10.618046

>  <Y89_distance>  (3) 
2.016115

>  <Y90_distance>  (3) 
3.295802

>  <P2prime_distance>  (3) 
4.126265

>  <P1prime_distance>  (3) 
9.252291

>  <P1_distance>  (3) 
8.001404

>  <P2_distance>  (3) 
6.711526

>  <RMSD_A71EV2A-x0152_0A>  (3) 
0.100972

>  <RMSD_A71EV2A-x0395_1A>  (3) 
0.291082

>  <Y89.OH-S125.O_distance>  (3) 
2.685434

$$$$
A71EV2A-x0278_0A
     RDKit          3D

 15 16  0  0  0  0  0  0  0  0999 V2000
    8.5770   22.0360   26.9000 N   0  0  0  0  0  0  0  0  0  0  0  0
    9.3980   22.2210   25.6990 C   0  0  1  0  0  0  0  0  0  0  0  0
   13.4050   22.4710   23.6070 O   0  0  0  0  0  0  0  0  0  0  0  0
    9.7040   23.6870   25.3700 C   0  0  0  0  0  0  0  0  0  0  0  0
   11.0290   23.6300   24.6310 C   0  0  0  0  0  0  0  0  0  0  0  0
   10.7730   21.5660   25.8870 C   0  0  0  0  0  0  0  0  0  0  0  0
   14.3420   23.1570   25.9230 C   0  0  0  0  0  0  0  0  0  0  0  0
   15.4140   22.5800   26.5850 C   0  0  0  0  0  0  0  0  0  0  0  0
   16.2510   23.3860   27.3400 C   0  0  0  0  0  0  0  0  0  0  0  0
   16.0240   24.7410   27.4300 C   0  0  0  0  0  0  0  0  0  0  0  0
   14.9580   25.3040   26.7690 C   0  0  0  0  0  0  0  0  0  0  0  0
   14.1040   24.5180   26.0130 C   0  0  0  0  0  0  0  0  0  0  0  0
   11.7310   22.5830   25.4030 N   0  0  0  0  0  0  0  0  0  0  0  0
   13.4190   20.7950   25.4280 O   0  0  0  0  0  0  0  0  0  0  0  0
   13.2480   22.1450   24.9890 S   0  0  0  0  0  0  0  0  0  0  0  0
  2  1  1  1
  4  2  1  0
  5  4  1  0
  6  2  1  0
  8  7  2  0
  9  8  1  0
 10  9  2  0
 11 10  1  0
 12 11  2  0
 12  7  1  0
 13  6  1  0
 13  5  1  0
 15 14  2  0
 15 13  1  0
 15  7  1  0
 15  3  2  0
M  END
>  <Unnamed: 0>  (4) 
17

>  <site_name>  (4) 
1

>  <pdb_entry>  (4) 
nan

>  <C110_distance>  (4) 
11.756715

>  <H21_distance>  (4) 
7.449505

>  <D39_distance>  (4) 
10.42879

>  <Y89_distance>  (4) 
1.578472

>  <Y90_distance>  (4) 
2.766539

>  <P2prime_distance>  (4) 
6.179305

>  <P1prime_distance>  (4) 
8.099591

>  <P1_distance>  (4) 
7.134974

>  <P2_distance>  (4) 
6.552358

>  <RMSD_A71EV2A-x0152_0A>  (4) 
0.104029

>  <RMSD_A71EV2A-x0395_1A>  (4) 
0.281697

>  <Y89.OH-S125.O_distance>  (4) 
2.694149

$$$$
A71EV2A-x0152_1A
     RDKit          3D

 17 18  0  0  0  0  0  0  0  0999 V2000
    8.6050   21.3710   28.2250 N   0  0  0  0  0  0  0  0  0  0  0  0
    9.2500   22.2200   27.3910 C   0  0  0  0  0  0  0  0  0  0  0  0
    9.9560   23.1310   27.8010 O   0  0  0  0  0  0  0  0  0  0  0  0
    9.0570   22.0170   25.8940 C   0  0  0  0  0  0  0  0  0  0  0  0
    7.3300   19.2140   28.4720 C   0  0  0  0  0  0  0  0  0  0  0  0
    7.4320   20.5780   27.8460 C   0  0  0  0  0  0  0  0  0  0  0  0
   11.2680   22.5150   25.0240 C   0  0  0  0  0  0  0  0  0  0  0  0
   11.9150   21.4860   25.6970 C   0  0  0  0  0  0  0  0  0  0  0  0
   13.2890   21.3560   25.5760 C   0  0  0  0  0  0  0  0  0  0  0  0
   14.0110   22.2340   24.7930 C   0  0  0  0  0  0  0  0  0  0  0  0
   13.3620   23.2450   24.1190 C   0  0  0  0  0  0  0  0  0  0  0  0
   11.9860   23.3890   24.2220 C   0  0  0  0  0  0  0  0  0  0  0  0
    8.9790   21.2060   29.6360 C   0  0  0  0  0  0  0  0  0  0  0  0
    9.2430   19.7530   29.9740 C   0  0  0  0  0  0  0  0  0  0  0  0
    8.2450   18.8730   29.3640 N   0  0  0  0  0  0  0  0  0  0  0  0
    9.9310   22.8220   25.1030 O   0  0  0  0  0  0  0  0  0  0  0  0
    6.4230   18.4480   28.1530 O   0  0  0  0  0  0  0  0  0  0  0  0
  2  1  1  0
  3  2  2  0
  4  2  1  0
  6  5  1  0
  6  1  1  0
  8  7  2  0
  9  8  1  0
 10  9  2  0
 11 10  1  0
 12 11  2  0
 12  7  1  0
 13  1  1  0
 14 13  1  0
 15 14  1  0
 15  5  1  0
 16  4  1  0
 16  7  1  0
 17  5  2  0
M  END
>  <Unnamed: 0>  (5) 
27

>  <site_name>  (5) 
1

>  <pdb_entry>  (5) 
nan

>  <C110_distance>  (5) 
12.343445

>  <H21_distance>  (5) 
7.819545

>  <D39_distance>  (5) 
10.927075

>  <Y89_distance>  (5) 
1.987009

>  <Y90_distance>  (5) 
3.461792

>  <P2prime_distance>  (5) 
4.475966

>  <P1prime_distance>  (5) 
8.654419

>  <P1_distance>  (5) 
7.718146

>  <P2_distance>  (5) 
6.780964

>  <RMSD_A71EV2A-x0152_0A>  (5) 
0.0

>  <RMSD_A71EV2A-x0395_1A>  (5) 
0.315482

>  <Y89.OH-S125.O_distance>  (5) 
2.731382

$$$$
A71EV2A-x0211_0A
     RDKit          3D

 14 14  0  0  0  0  0  0  0  0999 V2000
   11.0850   20.7280   28.3630 N   0  0  0  0  0  0  0  0  0  0  0  0
   11.7490   22.1520   26.1280 C   0  0  0  0  0  0  0  0  0  0  0  0
    9.3430   21.5300   26.8390 O   0  0  0  0  0  0  0  0  0  0  0  0
   12.9290   21.4210   26.1680 C   0  0  0  0  0  0  0  0  0  0  0  0
   13.8320   21.5310   25.1250 C   0  0  0  0  0  0  0  0  0  0  0  0
   13.5630   22.3570   24.0540 C   0  0  0  0  0  0  0  0  0  0  0  0
   12.3940   23.1010   24.0150 C   0  0  0  0  0  0  0  0  0  0  0  0
   11.4800   23.0120   25.0530 C   0  0  0  0  0  0  0  0  0  0  0  0
   10.0540   24.9910   24.7680 C   0  0  0  0  0  0  0  0  0  0  0  0
    9.6190   25.6450   25.8650 F   0  0  0  0  0  0  0  0  0  0  0  0
   11.1110   25.7470   24.4220 F   0  0  0  0  0  0  0  0  0  0  0  0
   10.6030   23.1200   28.2400 O   0  0  0  0  0  0  0  0  0  0  0  0
   10.2910   23.7000   25.1110 O   0  0  0  0  0  0  0  0  0  0  0  0
   10.5820   21.9310   27.4400 S   0  0  0  0  0  0  0  0  0  0  0  0
  4  2  2  0
  5  4  1  0
  6  5  2  0
  7  6  1  0
  8  7  2  0
  8  2  1  0
  9 10  1  0
 11  9  1  0
 13  9  1  0
 13  8  1  0
 14  3  2  0
 14 12  2  0
 14  1  1  0
 14  2  1  0
M  END
>  <Unnamed: 0>  (6) 
30

>  <site_name>  (6) 
1

>  <pdb_entry>  (6) 
nan

>  <C110_distance>  (6) 
12.367932

>  <H21_distance>  (6) 
7.55686

>  <D39_distance>  (6) 
10.595457

>  <Y89_distance>  (6) 
1.870575

>  <Y90_distance>  (6) 
3.125471

>  <P2prime_distance>  (6) 
5.551847

>  <P1prime_distance>  (6) 
8.726305

>  <P1_distance>  (6) 
7.806357

>  <P2_distance>  (6) 
6.927855

>  <RMSD_A71EV2A-x0152_0A>  (6) 
0.108052

>  <RMSD_A71EV2A-x0395_1A>  (6) 
0.28534

>  <Y89.OH-S125.O_distance>  (6) 
2.669168

$$$$
A71EV2A-x0228_0A
     RDKit          3D

 11 11  0  0  0  0  0  0  0  0999 V2000
   11.9770   22.2960   25.1460 N   0  0  0  0  0  0  0  0  0  0  0  0
   14.1930   23.8120   24.7130 C   0  0  0  0  0  0  0  0  0  0  0  0
   13.0640   22.2970   22.9480 O   0  0  0  0  0  0  0  0  0  0  0  0
   12.0560   22.2000   26.6180 C   0  0  0  0  0  0  0  0  0  0  0  0
   10.7020   21.7810   27.1990 C   0  0  0  0  0  0  0  0  0  0  0  0
    9.5750   22.6600   26.6900 C   0  0  0  0  0  0  0  0  0  0  0  0
    9.6180   22.8160   25.1830 C   0  0  0  0  0  0  0  0  0  0  0  0
   10.9840   23.2990   24.7240 C   0  0  0  0  0  0  0  0  0  0  0  0
   14.1810   21.2320   24.8720 O   0  0  0  0  0  0  0  0  0  0  0  0
    8.3070   22.1060   27.0520 O   0  0  0  0  0  0  0  0  0  0  0  0
   13.3900   22.2990   24.3380 S   0  0  0  0  0  0  0  0  0  0  0  0
  4  1  1  0
  5  4  1  0
  6  5  1  0
  7  6  1  0
  8  7  1  0
  8  1  1  0
  6 10  1  0
 11  9  2  0
 11  3  2  0
 11  2  1  0
 11  1  1  0
M  END
>  <Unnamed: 0>  (7) 
33

>  <site_name>  (7) 
1

>  <pdb_entry>  (7) 
nan

>  <C110_distance>  (7) 
12.014202

>  <H21_distance>  (7) 
7.051957

>  <D39_distance>  (7) 
9.984048

>  <Y89_distance>  (7) 
1.666041

>  <Y90_distance>  (7) 
2.066799

>  <P2prime_distance>  (7) 
6.504896

>  <P1prime_distance>  (7) 
8.401329

>  <P1_distance>  (7) 
7.495259

>  <P2_distance>  (7) 
6.530287

>  <RMSD_A71EV2A-x0152_0A>  (7) 
0.121898

>  <RMSD_A71EV2A-x0395_1A>  (7) 
0.260314

>  <Y89.OH-S125.O_distance>  (7) 
2.653626

$$$$
A71EV2A-x0229_1A
     RDKit          3D

 13 13  0  0  0  0  0  0  0  0999 V2000
    9.4560   21.8950   25.7030 N   0  0  0  0  0  0  0  0  0  0  0  0
    8.8640   23.8900   27.4350 C   0  0  0  0  0  0  0  0  0  0  0  0
    7.3400   21.8520   26.9770 O   0  0  0  0  0  0  0  0  0  0  0  0
   10.8470   22.0970   25.4500 C   0  0  0  0  0  0  0  0  0  0  0  0
   11.7530   21.1430   25.8920 C   0  0  0  0  0  0  0  0  0  0  0  0
   13.1080   21.3140   25.6710 C   0  0  0  0  0  0  0  0  0  0  0  0
   13.5960   22.4420   25.0320 C   0  0  0  0  0  0  0  0  0  0  0  0
   15.0810   22.6520   24.9040 C   0  0  0  0  0  0  0  0  0  0  0  0
   12.6840   23.3860   24.5800 C   0  0  0  0  0  0  0  0  0  0  0  0
   11.3240   23.2220   24.7790 C   0  0  0  0  0  0  0  0  0  0  0  0
   15.6640   23.1370   26.1620 N   0  0  0  0  0  0  0  0  0  0  0  0
    9.4790   21.4860   28.1410 O   0  0  0  0  0  0  0  0  0  0  0  0
    8.7250   22.1710   27.1370 S   0  0  0  0  0  0  0  0  0  0  0  0
  4  1  1  0
  5  4  2  0
  6  5  1  0
  7  6  2  0
  8  7  1  0
  9  7  1  0
 10  4  1  0
 10  9  2  0
 11  8  1  0
 13 12  2  0
 13  3  2  0
 13  1  1  0
 13  2  1  0
M  END
>  <Unnamed: 0>  (8) 
35

>  <site_name>  (8) 
1

>  <pdb_entry>  (8) 
nan

>  <C110_distance>  (8) 
12.343976

>  <H21_distance>  (8) 
7.841829

>  <D39_distance>  (8) 
11.157675

>  <Y89_distance>  (8) 
2.044983

>  <Y90_distance>  (8) 
3.576709

>  <P2prime_distance>  (8) 
6.015424

>  <P1prime_distance>  (8) 
8.663693

>  <P1_distance>  (8) 
7.706909

>  <P2_distance>  (8) 
6.510292

>  <RMSD_A71EV2A-x0152_0A>  (8) 
0.108733

>  <RMSD_A71EV2A-x0395_1A>  (8) 
0.27051

>  <Y89.OH-S125.O_distance>  (8) 
2.653943

$$$$
A71EV2A-x0359_0A
     RDKit          3D

 12 12  0  0  0  0  0  0  0  0999 V2000
    9.2400   22.5020   28.2490 N   0  0  0  0  0  0  0  0  0  0  0  0
   10.3630   21.8080   28.8640 C   0  0  0  0  0  0  0  0  0  0  0  0
    9.4500   23.9540   28.3130 C   0  0  0  0  0  0  0  0  0  0  0  0
    9.0130   22.0500   26.8690 C   0  0  0  0  0  0  0  0  0  0  0  0
   10.2120   22.2340   25.9680 C   0  0  0  0  0  0  0  0  0  0  0  0
   11.2540   21.3170   25.9850 C   0  0  0  0  0  0  0  0  0  0  0  0
   12.3850   21.5030   25.2130 C   0  0  0  0  0  0  0  0  0  0  0  0
   12.4910   22.6190   24.3910 C   0  0  0  0  0  0  0  0  0  0  0  0
   13.6910   22.8450   23.6300 C   0  0  0  0  0  0  0  0  0  0  0  0
   11.4430   23.5380   24.3500 C   0  0  0  0  0  0  0  0  0  0  0  0
   10.3210   23.3440   25.1370 C   0  0  0  0  0  0  0  0  0  0  0  0
   14.6630   22.9880   23.0510 N   0  0  0  0  0  0  0  0  0  0  0  0
  2  1  1  0
  3  1  1  0
  4  1  1  0
  5  4  1  0
  6  5  2  0
  7  6  1  0
  8  7  2  0
  9  8  1  0
 10  8  1  0
 11  5  1  0
 11 10  2  0
 12  9  3  0
M  END
>  <Unnamed: 0>  (9) 
41

>  <site_name>  (9) 
1

>  <pdb_entry>  (9) 
nan

>  <C110_distance>  (9) 
12.477528

>  <H21_distance>  (9) 
7.513428

>  <D39_distance>  (9) 
10.289758

>  <Y89_distance>  (9) 
2.019071

>  <Y90_distance>  (9) 
3.093013

>  <P2prime_distance>  (9) 
6.143621

>  <P1prime_distance>  (9) 
9.146468

>  <P1_distance>  (9) 
7.87819

>  <P2_distance>  (9) 
6.635129

>  <RMSD_A71EV2A-x0152_0A>  (9) 
0.117952

>  <RMSD_A71EV2A-x0395_1A>  (9) 
0.28378

>  <Y89.OH-S125.O_distance>  (9) 
2.683941

$$$$
