A71EV2A-x0451_0A
     RDKit          3D

 14 15  0  0  0  0  0  0  0  0999 V2000
   11.0310   13.6610   22.1710 N   0  0  0  0  0  0  0  0  0  0  0  0
   12.0780   14.6430   21.9560 C   0  0  0  0  0  0  0  0  0  0  0  0
   10.5460   14.3020   24.2610 O   0  0  0  0  0  0  0  0  0  0  0  0
   10.4730   13.4770   23.3640 C   0  0  0  0  0  0  0  0  0  0  0  0
    8.6190   11.9810   24.4400 C   0  0  0  0  0  0  0  0  0  0  0  0
    9.7500   12.2060   23.5680 C   0  0  0  0  0  0  0  0  0  0  0  0
    9.9910   11.0180   22.9420 C   0  0  0  0  0  0  0  0  0  0  0  0
    9.0210    8.7090   22.8520 C   0  0  0  0  0  0  0  0  0  0  0  0
    8.2370   10.6440   24.2650 C   0  0  0  0  0  0  0  0  0  0  0  0
    7.1650   10.0920   24.9550 C   0  0  0  0  0  0  0  0  0  0  0  0
    6.4570   10.9070   25.8300 C   0  0  0  0  0  0  0  0  0  0  0  0
    6.8190   12.2340   26.0130 C   0  0  0  0  0  0  0  0  0  0  0  0
    7.8960   12.7760   25.3280 C   0  0  0  0  0  0  0  0  0  0  0  0
    9.0870   10.0780   23.3390 N   0  0  0  0  0  0  0  0  0  0  0  0
  2  1  1  0
  4  3  2  0
  4  1  1  0
  6  5  1  0
  6  4  1  0
  7  6  2  0
  9  5  2  0
 10  9  1  0
 11 10  2  0
 12 11  1  0
 13 12  2  0
 13  5  1  0
 14  9  1  0
 14  8  1  0
 14  7  1  0
M  END
>  <Unnamed: 0>  (1) 
0

>  <site_name>  (1) 
1

>  <pdb_entry>  (1) 
nan

>  <C110_distance>  (1) 
4.415064

>  <H21_distance>  (1) 
3.693482

>  <D39_distance>  (1) 
5.163947

>  <Y89_distance>  (1) 
3.904361

>  <Y90_distance>  (1) 
5.979962

>  <P2prime_distance>  (1) 
3.19355

>  <P1prime_distance>  (1) 
3.816827

>  <P1_distance>  (1) 
0.29337

>  <P2_distance>  (1) 
0.29337

>  <RMSD_A71EV2A-x0152_0A>  (1) 
0.194956

>  <RMSD_A71EV2A-x0395_1A>  (1) 
0.382425

>  <Y89.OH-S125.O_distance>  (1) 
9.225109

$$$$
A71EV2A-x0554_0A
     RDKit          3D

 13 14  0  0  0  0  0  0  0  0999 V2000
   10.4850   12.4460   22.7200 N   0  0  0  0  0  0  0  0  0  0  0  0
   11.8220   14.4030   22.2740 C   0  0  0  0  0  0  0  0  0  0  0  0
   10.9890   13.8220   24.4300 O   0  0  0  0  0  0  0  0  0  0  0  0
   11.0550   13.5530   23.2460 C   0  0  0  0  0  0  0  0  0  0  0  0
    9.6390   11.5230   23.3550 C   0  0  0  0  0  0  0  0  0  0  0  0
    9.7590   10.1730   23.0380 C   0  0  0  0  0  0  0  0  0  0  0  0
    8.9010    9.2310   23.5680 C   0  0  0  0  0  0  0  0  0  0  0  0
    7.8910    9.5990   24.4370 C   0  0  0  0  0  0  0  0  0  0  0  0
    7.7580   10.9340   24.8220 C   0  0  0  0  0  0  0  0  0  0  0  0
    6.8710   11.6520   25.6810 C   0  0  0  0  0  0  0  0  0  0  0  0
    7.2150   12.9600   25.6040 C   0  0  0  0  0  0  0  0  0  0  0  0
    8.6360   11.8880   24.2630 C   0  0  0  0  0  0  0  0  0  0  0  0
    8.2760   13.1200   24.7510 N   0  0  0  0  0  0  0  0  0  0  0  0
  4  1  1  0
  4  3  2  0
  4  2  1  0
  5  1  1  0
  6  5  2  0
  7  6  1  0
  8  7  2  0
  9  8  1  0
 10  9  1  0
 11 10  2  0
 12  9  2  0
 12  5  1  0
 13 12  1  0
 13 11  1  0
M  END
>  <Unnamed: 0>  (2) 
9

>  <site_name>  (2) 
1

>  <pdb_entry>  (2) 
nan

>  <C110_distance>  (2) 
4.338712

>  <H21_distance>  (2) 
3.871777

>  <D39_distance>  (2) 
5.482263

>  <Y89_distance>  (2) 
3.996863

>  <Y90_distance>  (2) 
6.397375

>  <P2prime_distance>  (2) 
3.162418

>  <P1prime_distance>  (2) 
3.423772

>  <P1_distance>  (2) 
0.661792

>  <P2_distance>  (2) 
0.661792

>  <RMSD_A71EV2A-x0152_0A>  (2) 
0.236044

>  <RMSD_A71EV2A-x0395_1A>  (2) 
0.207256

>  <Y89.OH-S125.O_distance>  (2) 
9.762875

$$$$
A71EV2A-x0556_0A
     RDKit          3D

 14 15  0  0  0  0  0  0  0  0999 V2000
    8.7870   10.2050   24.0120 N   0  0  0  0  0  0  0  0  0  0  0  0
    9.6980    9.2280   23.4330 C   0  0  0  0  0  0  0  0  0  0  0  0
    5.4530   11.9580   26.4510 O   0  0  0  0  0  0  0  0  0  0  0  0
    8.6950   11.5080   23.7170 C   0  0  0  0  0  0  0  0  0  0  0  0
    7.7010   12.0030   24.5130 C   0  0  0  0  0  0  0  0  0  0  0  0
    7.2280   10.9260   25.2780 C   0  0  0  0  0  0  0  0  0  0  0  0
    6.1230   10.9450   26.2690 C   0  0  0  0  0  0  0  0  0  0  0  0
    4.8230    9.5810   27.8650 C   0  0  0  0  0  0  0  0  0  0  0  0
    4.9950    8.4540   28.8800 C   0  0  0  0  0  0  0  0  0  0  0  0
    3.5120    8.1320   28.6950 C   0  0  0  0  0  0  0  0  0  0  0  0
    3.5580    8.8590   27.3480 C   0  0  0  0  0  0  0  0  0  0  0  0
    7.2290   13.2680   24.5660 N   0  0  0  0  0  0  0  0  0  0  0  0
    7.9060    9.8140   24.9670 N   0  0  0  0  0  0  0  0  0  0  0  0
    5.9200    9.7880   26.9190 N   0  0  0  0  0  0  0  0  0  0  0  0
  2  1  1  0
  4  1  1  0
  5  4  2  0
  6  5  1  0
  7  6  1  0
  7  3  2  0
  9  8  1  0
 10  9  1  0
 11 10  1  0
 11  8  1  0
 12  5  1  0
 13  1  1  0
 13  6  2  0
  8 14  1  0
 14  7  1  0
M  END
>  <Unnamed: 0>  (3) 
12

>  <site_name>  (3) 
1

>  <pdb_entry>  (3) 
nan

>  <C110_distance>  (3) 
3.912265

>  <H21_distance>  (3) 
7.171082

>  <D39_distance>  (3) 
8.37791

>  <Y89_distance>  (3) 
7.639499

>  <Y90_distance>  (3) 
9.894774

>  <P2prime_distance>  (3) 
4.253064

>  <P1prime_distance>  (3) 
4.709898

>  <P1_distance>  (3) 
0.741335

>  <P2_distance>  (3) 
0.741335

>  <RMSD_A71EV2A-x0152_0A>  (3) 
0.139451

>  <RMSD_A71EV2A-x0395_1A>  (3) 
0.287821

>  <Y89.OH-S125.O_distance>  (3) 
2.606263

$$$$
A71EV2A-x0566_0A
     RDKit          3D

 13 14  0  0  0  0  0  0  0  0999 V2000
    8.8740   13.7830   22.2240 N   0  0  0  0  0  0  0  0  0  0  0  0
    9.2280   14.8930   21.3620 C   0  0  0  0  0  0  0  0  0  0  0  0
   10.9850   13.0460   22.4530 O   0  0  0  0  0  0  0  0  0  0  0  0
    9.7890   12.9420   22.7040 C   0  0  0  0  0  0  0  0  0  0  0  0
    9.2730   11.7920   23.5080 C   0  0  0  0  0  0  0  0  0  0  0  0
    9.6790   10.5040   23.1620 C   0  0  0  0  0  0  0  0  0  0  0  0
    9.0610    9.4010   23.7220 C   0  0  0  0  0  0  0  0  0  0  0  0
    8.0350    9.5520   24.6410 C   0  0  0  0  0  0  0  0  0  0  0  0
    7.6350   10.8270   25.0580 C   0  0  0  0  0  0  0  0  0  0  0  0
    6.6870   11.3370   25.9990 C   0  0  0  0  0  0  0  0  0  0  0  0
    6.7760   12.6910   25.9590 C   0  0  0  0  0  0  0  0  0  0  0  0
    8.2700   11.9460   24.4810 C   0  0  0  0  0  0  0  0  0  0  0  0
    7.7300   13.0740   25.0500 N   0  0  0  0  0  0  0  0  0  0  0  0
  2  1  1  0
  4  1  1  0
  4  3  2  0
  5  4  1  0
  6  5  2  0
  7  6  1  0
  8  7  2  0
  9  8  1  0
 10  9  1  0
 11 10  2  0
 12  9  2  0
 12  5  1  0
 13 12  1  0
 13 11  1  0
M  END
>  <Unnamed: 0>  (4) 
13

>  <site_name>  (4) 
1

>  <pdb_entry>  (4) 
nan

>  <C110_distance>  (4) 
4.580461

>  <H21_distance>  (4) 
4.539944

>  <D39_distance>  (4) 
5.896542

>  <Y89_distance>  (4) 
5.314752

>  <Y90_distance>  (4) 
6.39788

>  <P2prime_distance>  (4) 
3.746112

>  <P1prime_distance>  (4) 
3.564987

>  <P1_distance>  (4) 
0.452828

>  <P2_distance>  (4) 
0.452828

>  <RMSD_A71EV2A-x0152_0A>  (4) 
0.222226

>  <RMSD_A71EV2A-x0395_1A>  (4) 
0.23078

>  <Y89.OH-S125.O_distance>  (4) 
9.660784

$$$$
A71EV2A-x0310_0A
     RDKit          3D

 14 14  0  0  0  0  0  0  0  0999 V2000
    8.1290    9.5440   24.1720 N   0  0  0  0  0  0  0  0  0  0  0  0
   10.0090    8.9300   22.7290 C   0  0  0  0  0  0  0  0  0  0  0  0
   10.6820   13.4740   24.4490 O   0  0  0  0  0  0  0  0  0  0  0  0
    9.1460    9.9310   23.4240 C   0  0  0  0  0  0  0  0  0  0  0  0
    6.4920   10.5980   25.6290 C   0  0  0  0  0  0  0  0  0  0  0  0
    8.2190   11.7840   24.2520 C   0  0  0  0  0  0  0  0  0  0  0  0
    7.8210   13.1740   24.6190 C   0  0  0  0  0  0  0  0  0  0  0  0
    9.2300   11.3420   23.4550 C   0  0  0  0  0  0  0  0  0  0  0  0
   10.8950   13.0800   23.3170 C   0  0  0  0  0  0  0  0  0  0  0  0
   11.9340   13.7370   22.4300 C   0  0  0  0  0  0  0  0  0  0  0  0
   12.1150   15.1390   22.7960 C   0  0  0  0  0  0  0  0  0  0  0  0
    7.5880   10.6890   24.6750 N   0  0  0  0  0  0  0  0  0  0  0  0
   10.1940   12.0640   22.7600 N   0  0  0  0  0  0  0  0  0  0  0  0
   12.1800   16.2380   23.0790 N   0  0  0  0  0  0  0  0  0  0  0  0
  4  2  1  0
  4  1  2  0
  7  6  1  0
  8  4  1  0
  8  6  2  0
  9  3  2  0
 10  9  1  0
 11 10  1  0
 12  5  1  0
 12  1  1  0
 12  6  1  0
 13  9  1  0
 13  8  1  0
 14 11  3  0
M  END
>  <Unnamed: 0>  (5) 
21

>  <site_name>  (5) 
1

>  <pdb_entry>  (5) 
nan

>  <C110_distance>  (5) 
3.564319

>  <H21_distance>  (5) 
3.62153

>  <D39_distance>  (5) 
5.449668

>  <Y89_distance>  (5) 
2.438545

>  <Y90_distance>  (5) 
5.045044

>  <P2prime_distance>  (5) 
3.359922

>  <P1prime_distance>  (5) 
3.289648

>  <P1_distance>  (5) 
0.863155

>  <P2_distance>  (5) 
0.863155

>  <RMSD_A71EV2A-x0152_0A>  (5) 
0.185859

>  <RMSD_A71EV2A-x0395_1A>  (5) 
0.26

>  <Y89.OH-S125.O_distance>  (5) 
11.249888

$$$$
A71EV2A-x0416_0A
     RDKit          3D

 15 16  0  0  0  0  0  0  0  0999 V2000
    6.7230   13.3150   25.2330 N   0  0  0  0  0  0  0  0  0  0  0  0
    9.7590    9.0280   23.1340 C   0  0  0  0  0  0  0  0  0  0  0  0
    5.0620   14.3940   26.3660 O   0  0  0  0  0  0  0  0  0  0  0  0
    9.0250   10.1770   23.7810 C   0  0  0  0  0  0  0  0  0  0  0  0
    7.8700    9.9900   24.5190 C   0  0  0  0  0  0  0  0  0  0  0  0
    9.4470   11.4810   23.6190 C   0  0  0  0  0  0  0  0  0  0  0  0
    8.7210   12.5340   24.1390 C   0  0  0  0  0  0  0  0  0  0  0  0
    7.5440   12.2430   24.8420 C   0  0  0  0  0  0  0  0  0  0  0  0
    5.6960   13.3680   26.1260 C   0  0  0  0  0  0  0  0  0  0  0  0
    5.3320   12.0810   26.8580 C   0  0  1  0  0  0  0  0  0  0  0  0
    6.1790   11.8500   28.0910 C   0  0  0  0  0  0  0  0  0  0  0  0
    5.3980   12.5530   29.1920 C   0  0  0  0  0  0  0  0  0  0  0  0
    3.9700   12.5560   28.7030 C   0  0  0  0  0  0  0  0  0  0  0  0
    7.1360   10.9820   25.0490 N   0  0  0  0  0  0  0  0  0  0  0  0
    3.9770   12.1210   27.3380 O   0  0  0  0  0  0  0  0  0  0  0  0
  4  2  1  0
  5  4  2  0
  6  4  1  0
  7  6  2  0
  8  7  1  0
  8  1  1  0
  9  3  2  0
  9  1  1  0
 10  9  1  1
 11 10  1  0
 12 11  1  0
 13 12  1  0
 14  5  1  0
 14  8  2  0
 15 10  1  0
 15 13  1  0
M  END
>  <Unnamed: 0>  (6) 
47

>  <site_name>  (6) 
1

>  <pdb_entry>  (6) 
nan

>  <C110_distance>  (6) 
3.784615

>  <H21_distance>  (6) 
6.47312

>  <D39_distance>  (6) 
7.906458

>  <Y89_distance>  (6) 
6.90635

>  <Y90_distance>  (6) 
9.674661

>  <P2prime_distance>  (6) 
4.168996

>  <P1prime_distance>  (6) 
4.27553

>  <P1_distance>  (6) 
0.764804

>  <P2_distance>  (6) 
0.764804

>  <RMSD_A71EV2A-x0152_0A>  (6) 
0.1327

>  <RMSD_A71EV2A-x0395_1A>  (6) 
0.299454

>  <Y89.OH-S125.O_distance>  (6) 
2.587671

$$$$
