A71EV2A-x0451_0A
     RDKit          3D

 14 15  0  0  0  0  0  0  0  0999 V2000
   11.0310   13.6610   22.1710 N   0  0  0  0  0  0  0  0  0  0  0  0
   12.0780   14.6430   21.9560 C   0  0  0  0  0  0  0  0  0  0  0  0
   10.5460   14.3020   24.2610 O   0  0  0  0  0  0  0  0  0  0  0  0
   10.4730   13.4770   23.3640 C   0  0  0  0  0  0  0  0  0  0  0  0
    8.6190   11.9810   24.4400 C   0  0  0  0  0  0  0  0  0  0  0  0
    9.7500   12.2060   23.5680 C   0  0  0  0  0  0  0  0  0  0  0  0
    9.9910   11.0180   22.9420 C   0  0  0  0  0  0  0  0  0  0  0  0
    9.0210    8.7090   22.8520 C   0  0  0  0  0  0  0  0  0  0  0  0
    8.2370   10.6440   24.2650 C   0  0  0  0  0  0  0  0  0  0  0  0
    7.1650   10.0920   24.9550 C   0  0  0  0  0  0  0  0  0  0  0  0
    6.4570   10.9070   25.8300 C   0  0  0  0  0  0  0  0  0  0  0  0
    6.8190   12.2340   26.0130 C   0  0  0  0  0  0  0  0  0  0  0  0
    7.8960   12.7760   25.3280 C   0  0  0  0  0  0  0  0  0  0  0  0
    9.0870   10.0780   23.3390 N   0  0  0  0  0  0  0  0  0  0  0  0
  2  1  1  0
  4  3  2  0
  4  1  1  0
  6  5  1  0
  6  4  1  0
  7  6  2  0
  9  5  2  0
 10  9  1  0
 11 10  2  0
 12 11  1  0
 13 12  2  0
 13  5  1  0
 14  9  1  0
 14  8  1  0
 14  7  1  0
M  END
>  <Unnamed: 0>  (1) 
0

>  <site_name>  (1) 
1

>  <pdb_entry>  (1) 
nan

>  <C110_distance>  (1) 
4.415064

>  <H21_distance>  (1) 
3.693482

>  <D39_distance>  (1) 
5.163947

>  <Y89_distance>  (1) 
3.904361

>  <Y90_distance>  (1) 
5.979962

>  <P2prime_distance>  (1) 
3.19355

>  <P1prime_distance>  (1) 
3.816827

>  <P1_distance>  (1) 
0.29337

>  <P2_distance>  (1) 
0.29337

>  <RMSD_A71EV2A-x0152_0A>  (1) 
0.194956

>  <RMSD_A71EV2A-x0395_1A>  (1) 
0.382425

>  <Y89.OH-S125.O_distance>  (1) 
9.225109

$$$$
A71EV2A-x0554_0A
     RDKit          3D

 13 14  0  0  0  0  0  0  0  0999 V2000
   10.4850   12.4460   22.7200 N   0  0  0  0  0  0  0  0  0  0  0  0
   11.8220   14.4030   22.2740 C   0  0  0  0  0  0  0  0  0  0  0  0
   10.9890   13.8220   24.4300 O   0  0  0  0  0  0  0  0  0  0  0  0
   11.0550   13.5530   23.2460 C   0  0  0  0  0  0  0  0  0  0  0  0
    9.6390   11.5230   23.3550 C   0  0  0  0  0  0  0  0  0  0  0  0
    9.7590   10.1730   23.0380 C   0  0  0  0  0  0  0  0  0  0  0  0
    8.9010    9.2310   23.5680 C   0  0  0  0  0  0  0  0  0  0  0  0
    7.8910    9.5990   24.4370 C   0  0  0  0  0  0  0  0  0  0  0  0
    7.7580   10.9340   24.8220 C   0  0  0  0  0  0  0  0  0  0  0  0
    6.8710   11.6520   25.6810 C   0  0  0  0  0  0  0  0  0  0  0  0
    7.2150   12.9600   25.6040 C   0  0  0  0  0  0  0  0  0  0  0  0
    8.6360   11.8880   24.2630 C   0  0  0  0  0  0  0  0  0  0  0  0
    8.2760   13.1200   24.7510 N   0  0  0  0  0  0  0  0  0  0  0  0
  4  1  1  0
  4  3  2  0
  4  2  1  0
  5  1  1  0
  6  5  2  0
  7  6  1  0
  8  7  2  0
  9  8  1  0
 10  9  1  0
 11 10  2  0
 12  9  2  0
 12  5  1  0
 13 12  1  0
 13 11  1  0
M  END
>  <Unnamed: 0>  (2) 
9

>  <site_name>  (2) 
1

>  <pdb_entry>  (2) 
nan

>  <C110_distance>  (2) 
4.338712

>  <H21_distance>  (2) 
3.871777

>  <D39_distance>  (2) 
5.482263

>  <Y89_distance>  (2) 
3.996863

>  <Y90_distance>  (2) 
6.397375

>  <P2prime_distance>  (2) 
3.162418

>  <P1prime_distance>  (2) 
3.423772

>  <P1_distance>  (2) 
0.661792

>  <P2_distance>  (2) 
0.661792

>  <RMSD_A71EV2A-x0152_0A>  (2) 
0.236044

>  <RMSD_A71EV2A-x0395_1A>  (2) 
0.207256

>  <Y89.OH-S125.O_distance>  (2) 
9.762875

$$$$
A71EV2A-x0554_1A
     RDKit          3D

 13 14  0  0  0  0  0  0  0  0999 V2000
   17.9060   -6.2330   17.7260 N   0  0  0  0  0  0  0  0  0  0  0  0
   19.8440   -5.8920   19.1170 C   0  0  0  0  0  0  0  0  0  0  0  0
   17.5990   -5.5430   19.8610 O   0  0  0  0  0  0  0  0  0  0  0  0
   18.3520   -5.8810   18.9500 C   0  0  0  0  0  0  0  0  0  0  0  0
   16.5530   -6.2610   17.3090 C   0  0  0  0  0  0  0  0  0  0  0  0
   15.9400   -7.3990   16.7960 C   0  0  0  0  0  0  0  0  0  0  0  0
   14.5790   -7.4260   16.5320 C   0  0  0  0  0  0  0  0  0  0  0  0
   13.8110   -6.2890   16.6920 C   0  0  0  0  0  0  0  0  0  0  0  0
   14.3930   -5.1090   17.1500 C   0  0  0  0  0  0  0  0  0  0  0  0
   13.9260   -3.7830   17.4100 C   0  0  0  0  0  0  0  0  0  0  0  0
   14.9820   -3.0740   17.8780 C   0  0  0  0  0  0  0  0  0  0  0  0
   15.7660   -5.1190   17.4700 C   0  0  0  0  0  0  0  0  0  0  0  0
   16.1000   -3.8640   17.9200 N   0  0  0  0  0  0  0  0  0  0  0  0
  4  3  2  0
  4  2  1  0
  4  1  1  0
  5  1  1  0
  6  5  2  0
  7  6  1  0
  8  7  2  0
  9  8  1  0
 10  9  1  0
 11 10  2  0
 12  9  2  0
 12  5  1  0
 13 12  1  0
 13 11  1  0
M  END
>  <Unnamed: 0>  (3) 
10

>  <site_name>  (3) 
1

>  <pdb_entry>  (3) 
nan

>  <C110_distance>  (3) 
11.210796

>  <H21_distance>  (3) 
16.49015

>  <D39_distance>  (3) 
16.167411

>  <Y89_distance>  (3) 
20.629812

>  <Y90_distance>  (3) 
21.534723

>  <P2prime_distance>  (3) 
17.262739

>  <P1prime_distance>  (3) 
16.089207

>  <P1_distance>  (3) 
13.573346

>  <P2_distance>  (3) 
13.573346

>  <RMSD_A71EV2A-x0152_0A>  (3) 
0.236044

>  <RMSD_A71EV2A-x0395_1A>  (3) 
0.207256

>  <Y89.OH-S125.O_distance>  (3) 
9.762875

$$$$
A71EV2A-x0554_2A
     RDKit          3D

 13 14  0  0  0  0  0  0  0  0999 V2000
   13.8680  -11.2980   11.0110 N   0  0  0  0  0  0  0  0  0  0  0  0
   13.5520  -13.4550    9.9830 C   0  0  0  0  0  0  0  0  0  0  0  0
   12.3030  -12.6920   11.8650 O   0  0  0  0  0  0  0  0  0  0  0  0
   13.1740  -12.4590   11.0380 C   0  0  0  0  0  0  0  0  0  0  0  0
   13.6470  -10.2080   11.8830 C   0  0  0  0  0  0  0  0  0  0  0  0
   14.5700   -9.8750   12.8760 C   0  0  0  0  0  0  0  0  0  0  0  0
   14.3530   -8.8010   13.7290 C   0  0  0  0  0  0  0  0  0  0  0  0
   13.2000   -8.0390   13.6260 C   0  0  0  0  0  0  0  0  0  0  0  0
   12.2440   -8.3440   12.6550 C   0  0  0  0  0  0  0  0  0  0  0  0
   10.9660   -7.8090   12.2930 C   0  0  0  0  0  0  0  0  0  0  0  0
   10.4960   -8.5660   11.2700 C   0  0  0  0  0  0  0  0  0  0  0  0
   12.4840   -9.4340   11.7920 C   0  0  0  0  0  0  0  0  0  0  0  0
   11.3970   -9.5530   10.9570 N   0  0  0  0  0  0  0  0  0  0  0  0
  4  2  1  0
  4  3  2  0
  4  1  1  0
  5  1  1  0
  6  5  2  0
  7  6  1  0
  8  7  2  0
  9  8  1  0
 10  9  1  0
 11 10  2  0
 12  9  2  0
 12  5  1  0
 13 11  1  0
 13 12  1  0
M  END
>  <Unnamed: 0>  (4) 
11

>  <site_name>  (4) 
1

>  <pdb_entry>  (4) 
nan

>  <C110_distance>  (4) 
17.621185

>  <H21_distance>  (4) 
22.485163

>  <D39_distance>  (4) 
21.446166

>  <Y89_distance>  (4) 
26.956483

>  <Y90_distance>  (4) 
26.698233

>  <P2prime_distance>  (4) 
23.803454

>  <P1prime_distance>  (4) 
22.375338

>  <P1_distance>  (4) 
18.790009

>  <P2_distance>  (4) 
18.790009

>  <RMSD_A71EV2A-x0152_0A>  (4) 
0.236044

>  <RMSD_A71EV2A-x0395_1A>  (4) 
0.207256

>  <Y89.OH-S125.O_distance>  (4) 
9.762875

$$$$
A71EV2A-x0566_0A
     RDKit          3D

 13 14  0  0  0  0  0  0  0  0999 V2000
    8.8740   13.7830   22.2240 N   0  0  0  0  0  0  0  0  0  0  0  0
    9.2280   14.8930   21.3620 C   0  0  0  0  0  0  0  0  0  0  0  0
   10.9850   13.0460   22.4530 O   0  0  0  0  0  0  0  0  0  0  0  0
    9.7890   12.9420   22.7040 C   0  0  0  0  0  0  0  0  0  0  0  0
    9.2730   11.7920   23.5080 C   0  0  0  0  0  0  0  0  0  0  0  0
    9.6790   10.5040   23.1620 C   0  0  0  0  0  0  0  0  0  0  0  0
    9.0610    9.4010   23.7220 C   0  0  0  0  0  0  0  0  0  0  0  0
    8.0350    9.5520   24.6410 C   0  0  0  0  0  0  0  0  0  0  0  0
    7.6350   10.8270   25.0580 C   0  0  0  0  0  0  0  0  0  0  0  0
    6.6870   11.3370   25.9990 C   0  0  0  0  0  0  0  0  0  0  0  0
    6.7760   12.6910   25.9590 C   0  0  0  0  0  0  0  0  0  0  0  0
    8.2700   11.9460   24.4810 C   0  0  0  0  0  0  0  0  0  0  0  0
    7.7300   13.0740   25.0500 N   0  0  0  0  0  0  0  0  0  0  0  0
  2  1  1  0
  4  1  1  0
  4  3  2  0
  5  4  1  0
  6  5  2  0
  7  6  1  0
  8  7  2  0
  9  8  1  0
 10  9  1  0
 11 10  2  0
 12  9  2  0
 12  5  1  0
 13 12  1  0
 13 11  1  0
M  END
>  <Unnamed: 0>  (5) 
13

>  <site_name>  (5) 
1

>  <pdb_entry>  (5) 
nan

>  <C110_distance>  (5) 
4.580461

>  <H21_distance>  (5) 
4.539944

>  <D39_distance>  (5) 
5.896542

>  <Y89_distance>  (5) 
5.314752

>  <Y90_distance>  (5) 
6.39788

>  <P2prime_distance>  (5) 
3.746112

>  <P1prime_distance>  (5) 
3.564987

>  <P1_distance>  (5) 
0.452828

>  <P2_distance>  (5) 
0.452828

>  <RMSD_A71EV2A-x0152_0A>  (5) 
0.222226

>  <RMSD_A71EV2A-x0395_1A>  (5) 
0.23078

>  <Y89.OH-S125.O_distance>  (5) 
9.660784

$$$$
A71EV2A-x0269_0A
     RDKit          3D

 15 16  0  0  0  0  0  0  0  0999 V2000
   16.0070  -10.3200   10.7830 N   0  0  0  0  0  0  0  0  0  0  0  0
   14.6720  -10.3800   10.9550 C   0  0  0  0  0  0  0  0  0  0  0  0
   13.9500  -11.1200   10.2910 O   0  0  0  0  0  0  0  0  0  0  0  0
   16.8810  -11.4970   10.6660 C   0  0  1  0  0  0  0  0  0  0  0  0
   12.2340   -8.0880   12.6960 C   0  0  0  0  0  0  0  0  0  0  0  0
   12.8230   -8.8980   11.7420 C   0  0  0  0  0  0  0  0  0  0  0  0
   16.1820  -12.6820   10.0070 C   0  0  0  0  0  0  0  0  0  0  0  0
   17.1710  -13.7980    9.6900 C   0  0  0  0  0  0  0  0  0  0  0  0
   18.2770  -13.2870    8.8310 C   0  0  0  0  0  0  0  0  0  0  0  0
   18.1330  -11.1150    9.8960 C   0  0  0  0  0  0  0  0  0  0  0  0
   14.0800   -9.4590   11.9740 C   0  0  0  0  0  0  0  0  0  0  0  0
   14.7290   -9.1670   13.1640 C   0  0  0  0  0  0  0  0  0  0  0  0
   14.1310   -8.3500   14.1070 C   0  0  0  0  0  0  0  0  0  0  0  0
   12.8870   -7.8170   13.8760 C   0  0  0  0  0  0  0  0  0  0  0  0
   19.0020  -12.2500    9.5640 N   0  0  0  0  0  0  0  0  0  0  0  0
  2  1  1  0
  3  2  2  0
  4  1  1  6
  6  5  2  0
  7  4  1  0
  8  7  1  0
  9  8  1  0
 10  4  1  0
 11  6  1  0
 11  2  1  0
 12 11  2  0
 13 12  1  0
 14 13  2  0
 14  5  1  0
 15 10  1  0
 15  9  1  0
M  END
>  <Unnamed: 0>  (6) 
15

>  <site_name>  (6) 
1

>  <pdb_entry>  (6) 
nan

>  <C110_distance>  (6) 
17.348688

>  <H21_distance>  (6) 
22.22734

>  <D39_distance>  (6) 
21.252085

>  <Y89_distance>  (6) 
26.665899

>  <Y90_distance>  (6) 
26.483616

>  <P2prime_distance>  (6) 
23.501783

>  <P1prime_distance>  (6) 
22.069996

>  <P1_distance>  (6) 
18.397344

>  <P2_distance>  (6) 
18.397344

>  <RMSD_A71EV2A-x0152_0A>  (6) 
0.226205

>  <RMSD_A71EV2A-x0395_1A>  (6) 
0.196679

>  <Y89.OH-S125.O_distance>  (6) 
9.689575

$$$$
A71EV2A-x0269_1A
     RDKit          3D

 15 16  0  0  0  0  0  0  0  0999 V2000
   17.3880   -4.7600   20.6320 N   0  0  0  0  0  0  0  0  0  0  0  0
   17.1850   -4.0060   19.5390 C   0  0  0  0  0  0  0  0  0  0  0  0
   17.9010   -3.0500   19.2370 O   0  0  0  0  0  0  0  0  0  0  0  0
   18.4150   -4.4950   21.6350 C   0  0  2  0  0  0  0  0  0  0  0  0
   14.1040   -3.8140   17.3430 C   0  0  0  0  0  0  0  0  0  0  0  0
   15.1590   -3.4420   18.1650 C   0  0  0  0  0  0  0  0  0  0  0  0
   18.5840   -5.7240   22.5020 C   0  0  0  0  0  0  0  0  0  0  0  0
   19.6220   -5.4870   23.5830 C   0  0  0  0  0  0  0  0  0  0  0  0
   19.2600   -4.2640   24.4020 C   0  0  0  0  0  0  0  0  0  0  0  0
   18.0690   -3.3020   22.5060 C   0  0  0  0  0  0  0  0  0  0  0  0
   16.0300   -4.4050   18.6730 C   0  0  0  0  0  0  0  0  0  0  0  0
   15.8210   -5.7440   18.3320 C   0  0  0  0  0  0  0  0  0  0  0  0
   14.7570   -6.1050   17.5200 C   0  0  0  0  0  0  0  0  0  0  0  0
   13.9000   -5.1470   17.0310 C   0  0  0  0  0  0  0  0  0  0  0  0
   19.0880   -3.0860   23.5420 N   0  0  0  0  0  0  0  0  0  0  0  0
  2  1  1  0
  3  2  2  0
  4  1  1  6
  6  5  2  0
  7  4  1  0
  8  7  1  0
  9  8  1  0
 10  4  1  0
 11  6  1  0
 11  2  1  0
 12 11  2  0
 13 12  1  0
 14 13  2  0
 14  5  1  0
 15 10  1  0
 15  9  1  0
M  END
>  <Unnamed: 0>  (7) 
16

>  <site_name>  (7) 
1

>  <pdb_entry>  (7) 
nan

>  <C110_distance>  (7) 
10.745846

>  <H21_distance>  (7) 
16.478454

>  <D39_distance>  (7) 
16.55217

>  <Y89_distance>  (7) 
19.001972

>  <Y90_distance>  (7) 
21.75592

>  <P2prime_distance>  (7) 
15.60549

>  <P1prime_distance>  (7) 
15.256975

>  <P1_distance>  (7) 
13.84261

>  <P2_distance>  (7) 
13.84261

>  <RMSD_A71EV2A-x0152_0A>  (7) 
0.226205

>  <RMSD_A71EV2A-x0395_1A>  (7) 
0.196679

>  <Y89.OH-S125.O_distance>  (7) 
9.689575

$$$$
A71EV2A-x0310_0A
     RDKit          3D

 14 14  0  0  0  0  0  0  0  0999 V2000
    8.1290    9.5440   24.1720 N   0  0  0  0  0  0  0  0  0  0  0  0
   10.0090    8.9300   22.7290 C   0  0  0  0  0  0  0  0  0  0  0  0
   10.6820   13.4740   24.4490 O   0  0  0  0  0  0  0  0  0  0  0  0
    9.1460    9.9310   23.4240 C   0  0  0  0  0  0  0  0  0  0  0  0
    6.4920   10.5980   25.6290 C   0  0  0  0  0  0  0  0  0  0  0  0
    8.2190   11.7840   24.2520 C   0  0  0  0  0  0  0  0  0  0  0  0
    7.8210   13.1740   24.6190 C   0  0  0  0  0  0  0  0  0  0  0  0
    9.2300   11.3420   23.4550 C   0  0  0  0  0  0  0  0  0  0  0  0
   10.8950   13.0800   23.3170 C   0  0  0  0  0  0  0  0  0  0  0  0
   11.9340   13.7370   22.4300 C   0  0  0  0  0  0  0  0  0  0  0  0
   12.1150   15.1390   22.7960 C   0  0  0  0  0  0  0  0  0  0  0  0
    7.5880   10.6890   24.6750 N   0  0  0  0  0  0  0  0  0  0  0  0
   10.1940   12.0640   22.7600 N   0  0  0  0  0  0  0  0  0  0  0  0
   12.1800   16.2380   23.0790 N   0  0  0  0  0  0  0  0  0  0  0  0
  4  2  1  0
  4  1  2  0
  7  6  1  0
  8  4  1  0
  8  6  2  0
  9  3  2  0
 10  9  1  0
 11 10  1  0
 12  5  1  0
 12  1  1  0
 12  6  1  0
 13  9  1  0
 13  8  1  0
 14 11  3  0
M  END
>  <Unnamed: 0>  (8) 
21

>  <site_name>  (8) 
1

>  <pdb_entry>  (8) 
nan

>  <C110_distance>  (8) 
3.564319

>  <H21_distance>  (8) 
3.62153

>  <D39_distance>  (8) 
5.449668

>  <Y89_distance>  (8) 
2.438545

>  <Y90_distance>  (8) 
5.045044

>  <P2prime_distance>  (8) 
3.359922

>  <P1prime_distance>  (8) 
3.289648

>  <P1_distance>  (8) 
0.863155

>  <P2_distance>  (8) 
0.863155

>  <RMSD_A71EV2A-x0152_0A>  (8) 
0.185859

>  <RMSD_A71EV2A-x0395_1A>  (8) 
0.26

>  <Y89.OH-S125.O_distance>  (8) 
11.249888

$$$$
A71EV2A-x0341_0A
     RDKit          3D

 13 14  0  0  0  0  0  0  0  0999 V2000
   15.0220  -10.8300   10.0060 N   0  0  0  0  0  0  0  0  0  0  0  0
   16.0230  -12.2040    8.2770 C   0  0  0  0  0  0  0  0  0  0  0  0
   11.7300  -11.7170   10.6140 O   0  0  0  0  0  0  0  0  0  0  0  0
   14.8850  -11.7560    9.1350 C   0  0  0  0  0  0  0  0  0  0  0  0
   12.8600  -11.5730   10.1810 C   0  0  0  0  0  0  0  0  0  0  0  0
   13.5110  -12.3430    9.0630 C   0  0  0  0  0  0  0  0  0  0  0  0
   13.6870   -9.7120   11.7090 C   0  0  0  0  0  0  0  0  0  0  0  0
   14.7370   -9.5250   12.6040 C   0  0  0  0  0  0  0  0  0  0  0  0
   14.5940   -8.6350   13.6570 C   0  0  0  0  0  0  0  0  0  0  0  0
   13.4190   -7.9330   13.8240 C   0  0  0  0  0  0  0  0  0  0  0  0
   12.3830   -8.1060   12.9310 C   0  0  0  0  0  0  0  0  0  0  0  0
   12.5100   -8.9870   11.8670 C   0  0  0  0  0  0  0  0  0  0  0  0
   13.8020  -10.6780   10.6580 N   0  0  0  0  0  0  0  0  0  0  0  0
  4  2  1  0
  4  1  2  0
  5  3  2  0
  6  5  1  0
  6  4  1  0
  8  7  2  0
  9  8  1  0
 10  9  2  0
 11 10  1  0
 12 11  2  0
 12  7  1  0
 13  5  1  0
 13  1  1  0
 13  7  1  0
M  END
>  <Unnamed: 0>  (9) 
38

>  <site_name>  (9) 
1

>  <pdb_entry>  (9) 
nan

>  <C110_distance>  (9) 
17.412021

>  <H21_distance>  (9) 
22.302424

>  <D39_distance>  (9) 
21.297289

>  <Y89_distance>  (9) 
26.763951

>  <Y90_distance>  (9) 
26.55413

>  <P2prime_distance>  (9) 
23.590618

>  <P1prime_distance>  (9) 
22.184488

>  <P1_distance>  (9) 
18.666153

>  <P2_distance>  (9) 
18.666153

>  <RMSD_A71EV2A-x0152_0A>  (9) 
0.221798

>  <RMSD_A71EV2A-x0395_1A>  (9) 
0.212441

>  <Y89.OH-S125.O_distance>  (9) 
9.766205

$$$$
A71EV2A-x0341_1A
     RDKit          3D

 13 14  0  0  0  0  0  0  0  0999 V2000
   17.2110   -5.0540   20.8540 N   0  0  0  0  0  0  0  0  0  0  0  0
   18.5060   -5.0990   22.9010 C   0  0  0  0  0  0  0  0  0  0  0  0
   18.2220   -2.5500   18.7100 O   0  0  0  0  0  0  0  0  0  0  0  0
   18.1570   -4.5560   21.5540 C   0  0  0  0  0  0  0  0  0  0  0  0
   18.0480   -3.3100   19.6440 C   0  0  0  0  0  0  0  0  0  0  0  0
   18.8440   -3.3870   20.9210 C   0  0  0  0  0  0  0  0  0  0  0  0
   16.1000   -4.6500   18.7280 C   0  0  0  0  0  0  0  0  0  0  0  0
   15.8990   -5.9840   18.3700 C   0  0  0  0  0  0  0  0  0  0  0  0
   14.8800   -6.3150   17.4910 C   0  0  0  0  0  0  0  0  0  0  0  0
   14.0690   -5.3370   16.9610 C   0  0  0  0  0  0  0  0  0  0  0  0
   14.2810   -4.0120   17.2890 C   0  0  0  0  0  0  0  0  0  0  0  0
   15.2890   -3.6610   18.1760 C   0  0  0  0  0  0  0  0  0  0  0  0
   17.1040   -4.3080   19.6930 N   0  0  0  0  0  0  0  0  0  0  0  0
  4  1  2  0
  4  2  1  0
  5  3  2  0
  6  5  1  0
  6  4  1  0
  8  7  2  0
  9  8  1  0
 10  9  2  0
 11 10  1  0
 12 11  2  0
 12  7  1  0
 13  7  1  0
 13  5  1  0
 13  1  1  0
M  END
>  <Unnamed: 0>  (10) 
39

>  <site_name>  (10) 
1

>  <pdb_entry>  (10) 
nan

>  <C110_distance>  (10) 
10.864474

>  <H21_distance>  (10) 
16.106781

>  <D39_distance>  (10) 
16.163968

>  <Y89_distance>  (10) 
19.822949

>  <Y90_distance>  (10) 
21.236687

>  <P2prime_distance>  (10) 
16.625893

>  <P1prime_distance>  (10) 
15.702827

>  <P1_distance>  (10) 
14.076711

>  <P2_distance>  (10) 
14.076711

>  <RMSD_A71EV2A-x0152_0A>  (10) 
0.221798

>  <RMSD_A71EV2A-x0395_1A>  (10) 
0.212441

>  <Y89.OH-S125.O_distance>  (10) 
9.766205

$$$$
A71EV2A-x0395_0A
     RDKit          3D

 16 16  0  0  0  0  0  0  0  0999 V2000
    8.9070   -7.8990   10.7340 N   0  0  0  0  0  0  0  0  0  0  0  0
    8.0480   -9.7530    9.3440 C   0  0  0  0  0  0  0  0  0  0  0  0
    5.9410   -9.0120   10.9570 O   0  0  0  0  0  0  0  0  0  0  0  0
    7.9410   -8.2700    9.6810 C   0  0  0  0  0  0  0  0  0  0  0  0
   12.6600   -7.6730   13.5310 C   0  0  0  0  0  0  0  0  0  0  0  0
    6.5260   -7.9760   10.1770 C   0  0  0  0  0  0  0  0  0  0  0  0
    8.2520   -7.4460    8.4340 C   0  0  0  0  0  0  0  0  0  0  0  0
   10.1210   -8.4690   10.9390 C   0  0  0  0  0  0  0  0  0  0  0  0
   12.0960   -8.3500   12.4550 C   0  0  0  0  0  0  0  0  0  0  0  0
   12.7820   -9.4200   11.8900 C   0  0  0  0  0  0  0  0  0  0  0  0
   14.0050   -9.8090   12.4090 C   0  0  0  0  0  0  0  0  0  0  0  0
   14.5480   -9.1460   13.4800 C   0  0  0  0  0  0  0  0  0  0  0  0
   13.8830   -8.0750   14.0350 C   0  0  0  0  0  0  0  0  0  0  0  0
   10.8180   -7.9470   11.9950 N   0  0  0  0  0  0  0  0  0  0  0  0
    7.3580   -6.3730    8.1930 O   0  0  0  0  0  0  0  0  0  0  0  0
   10.5590   -9.3810   10.2410 O   0  0  0  0  0  0  0  0  0  0  0  0
  4  2  1  0
  4  1  1  0
  6  4  1  0
  6  3  1  0
  7  4  1  0
  8  1  1  0
  9  5  2  0
 10  9  1  0
 11 10  2  0
 12 11  1  0
 13 12  2  0
 13  5  1  0
 14  8  1  0
 14  9  1  0
 15  7  1  0
 16  8  2  0
M  END
>  <Unnamed: 0>  (11) 
43

>  <site_name>  (11) 
1

>  <pdb_entry>  (11) 
nan

>  <C110_distance>  (11) 
17.399538

>  <H21_distance>  (11) 
22.229483

>  <D39_distance>  (11) 
21.182559

>  <Y89_distance>  (11) 
26.705379

>  <Y90_distance>  (11) 
26.401121

>  <P2prime_distance>  (11) 
23.567446

>  <P1prime_distance>  (11) 
22.118726

>  <P1_distance>  (11) 
18.396717

>  <P2_distance>  (11) 
18.396717

>  <RMSD_A71EV2A-x0152_0A>  (11) 
0.315482

>  <RMSD_A71EV2A-x0395_1A>  (11) 
0.0

>  <Y89.OH-S125.O_distance>  (11) 
9.764176

$$$$
A71EV2A-x0395_1A
     RDKit          3D

 16 16  0  0  0  0  0  0  0  0999 V2000
   18.0830   -3.3850   21.4100 N   0  0  0  0  0  0  0  0  0  0  0  0
   20.0120   -4.7440   22.1720 C   0  0  0  0  0  0  0  0  0  0  0  0
   20.4980   -2.3050   23.9490 O   0  0  0  0  0  0  0  0  0  0  0  0
   19.0410   -3.6220   22.5090 C   0  0  0  0  0  0  0  0  0  0  0  0
   16.1350   -5.7540   18.2240 C   0  0  0  0  0  0  0  0  0  0  0  0
   19.8250   -2.3270   22.7010 C   0  0  0  0  0  0  0  0  0  0  0  0
   18.3050   -3.9750   23.7970 C   0  0  0  0  0  0  0  0  0  0  0  0
   17.5160   -4.3200   20.6110 C   0  0  0  0  0  0  0  0  0  0  0  0
   15.8620   -4.4800   18.7130 C   0  0  0  0  0  0  0  0  0  0  0  0
   14.7120   -3.8240   18.2910 C   0  0  0  0  0  0  0  0  0  0  0  0
   13.8370   -4.4510   17.4200 C   0  0  0  0  0  0  0  0  0  0  0  0
   14.1000   -5.7240   16.9600 C   0  0  0  0  0  0  0  0  0  0  0  0
   15.2510   -6.3660   17.3510 C   0  0  0  0  0  0  0  0  0  0  0  0
   16.6520   -3.7990   19.6750 N   0  0  0  0  0  0  0  0  0  0  0  0
   17.1840   -4.8190   23.6000 O   0  0  0  0  0  0  0  0  0  0  0  0
   17.7720   -5.5160   20.7050 O   0  0  0  0  0  0  0  0  0  0  0  0
  4  1  1  0
  4  2  1  0
  6  4  1  0
  6  3  1  0
  7  4  1  0
  8  1  1  0
  9  5  2  0
 10  9  1  0
 11 10  2  0
 12 11  1  0
 13 12  2  0
 13  5  1  0
 14  9  1  0
 14  8  1  0
 15  7  1  0
 16  8  2  0
M  END
>  <Unnamed: 0>  (12) 
44

>  <site_name>  (12) 
1

>  <pdb_entry>  (12) 
nan

>  <C110_distance>  (12) 
10.309591

>  <H21_distance>  (12) 
16.159582

>  <D39_distance>  (12) 
16.920199

>  <Y89_distance>  (12) 
18.426282

>  <Y90_distance>  (12) 
22.063719

>  <P2prime_distance>  (12) 
15.260104

>  <P1prime_distance>  (12) 
14.846848

>  <P1_distance>  (12) 
13.877293

>  <P2_distance>  (12) 
13.877293

>  <RMSD_A71EV2A-x0152_0A>  (12) 
0.315482

>  <RMSD_A71EV2A-x0395_1A>  (12) 
0.0

>  <Y89.OH-S125.O_distance>  (12) 
9.764176

$$$$
